%chk=water-hexamer-cage-opt-freq.chk
%mem=512mb
%nprocshared=4

#p b3lyp/6-31+G(d,p) opt freq

Water Hexamer Cage Structure Hincapi et. al. JPCA, 7809, 114 (2010)

0 1
 O     0.89740000    -1.28511100     1.37567400
 H     0.93366000    -1.62024900     0.46129100
 H     1.53842400    -0.56327000     1.32598100
 O    -1.55921800    -0.24177800     1.42347400
 H    -2.06410200    -0.50196600     2.19746400
 H    -0.67765600    -0.67864600     1.52523700
 O     2.09078900     0.98445200    -0.04569300
 H     1.25856800     1.49842100    -0.01864600
 H     2.78821600     1.64209800    -0.09388600
 O    -0.44703200     2.02126000     0.01211400
 H    -0.90399800     1.53998500     0.71690900
 H    -0.91108100     1.70047200    -0.77105600
 O    -1.77668100    -0.21141100    -1.35117600
 H    -2.56069800    -0.51617900    -1.81406100
 H    -1.94980100    -0.38724200    -0.40953000
 O     0.92440000    -1.33940500    -1.43239500
 H     0.04462600    -0.99239900    -1.63526700
 H     1.46658100    -0.54508700    -1.34041000

